LTspice 24.1.7 for Windows
Circuit: H:\Study\UPenn\2nd Semster\ESE 3190\Final Project\Submission\Final_Project_Schematic.net
Start Time: Sun Apr 27 21:08:01 2025
solver = Normal
Maximum thread count: 16
tnom = 27
temp = 27
method = trap
Direct Newton iteration for .op point succeeded.
Total elapsed time: 4.726 seconds.

Files loaded:
H:\Study\UPenn\2nd Semster\ESE 3190\Final Project\Submission\Final_Project_Schematic.net
C:\Users\hesha\AppData\Local\LTspice\lib\cmp\standard.mos
H:\Study\UPenn\2nd Semster\ESE 3190\Final Project\Submission\ALD1103N.txt
H:\Study\UPenn\2nd Semster\ESE 3190\Final Project\Submission\ALD1103P.txt
H:\Study\UPenn\2nd Semster\ESE 3190\Final Project\Submission\irl.spi

