LTspice 24.1.7 for Windows
Circuit: H:\Study\UPenn\2nd Semster\ESE 3190\LAB\Final Project\PreLab\PreLAB 10.net
Start Time: Sun Apr 27 00:32:24 2025
solver = Normal
Maximum thread count: 16
tnom = 27
temp = 27
method = trap
Direct Newton iteration for .op point succeeded.
Total elapsed time: 4.311 seconds.

Files loaded:
H:\Study\UPenn\2nd Semster\ESE 3190\LAB\Final Project\PreLab\PreLAB 10.net
C:\Users\hesha\AppData\Local\LTspice\lib\cmp\standard.mos
H:\Study\UPenn\2nd Semster\ESE 3190\LAB\Final Project\PreLab\ALD1103N.txt
H:\Study\UPenn\2nd Semster\ESE 3190\LAB\Final Project\PreLab\ALD1103P.txt
H:\Study\UPenn\2nd Semster\ESE 3190\LAB\Final Project\PreLab\irl.spi

